<routes>
                                <vType accel="2.6" decel="4.5" id="Car" length="4.0" maxSpeed="70.0" sigma="0.4" guiShape="passenger" />
                                <route id="right" edges="W_0 0_1 1_E2" />
                                <route id="left" edges="E2_1 1_0 0_W" />
                                <route id="down" edges="N_0 0_S" />
                                <route id="up" edges="S_0 0_N" />
                                <route id="down2" edges="N2_1 1_S2" />
                                <route id="up2" edges="S2_1 1_N2" />
    <vehicle id="right_0" type="Car" route="right" depart="0" />
    <vehicle id="right_1" type="Car" route="left" depart="0" />
    <vehicle id="right_2" type="Car" route="up" depart="0" />
    <vehicle id="right_3" type="Car" route="down" depart="0" />
    <vehicle id="right_4" type="Car" route="up2" depart="0" />
    <vehicle id="right_5" type="Car" route="down2" depart="0" />
    <vehicle id="right_6" type="Car" route="right" depart="1" />
    <vehicle id="right_7" type="Car" route="left" depart="1" />
    <vehicle id="right_8" type="Car" route="up" depart="1" />
    <vehicle id="right_9" type="Car" route="down" depart="1" />
    <vehicle id="right_10" type="Car" route="up2" depart="1" />
    <vehicle id="right_11" type="Car" route="down2" depart="1" />
    <vehicle id="right_12" type="Car" route="right" depart="2" />
    <vehicle id="right_13" type="Car" route="left" depart="2" />
    <vehicle id="right_14" type="Car" route="up" depart="2" />
    <vehicle id="right_15" type="Car" route="down" depart="2" />
    <vehicle id="right_16" type="Car" route="up2" depart="2" />
    <vehicle id="right_17" type="Car" route="down2" depart="2" />
    <vehicle id="right_18" type="Car" route="right" depart="3" />
    <vehicle id="right_19" type="Car" route="left" depart="3" />
    <vehicle id="right_20" type="Car" route="up" depart="3" />
    <vehicle id="right_21" type="Car" route="down" depart="3" />
    <vehicle id="right_22" type="Car" route="up2" depart="3" />
    <vehicle id="right_23" type="Car" route="down2" depart="3" />
    <vehicle id="right_24" type="Car" route="right" depart="4" />
    <vehicle id="right_25" type="Car" route="left" depart="4" />
    <vehicle id="right_26" type="Car" route="up" depart="4" />
    <vehicle id="right_27" type="Car" route="down" depart="4" />
    <vehicle id="right_28" type="Car" route="up2" depart="4" />
    <vehicle id="right_29" type="Car" route="down2" depart="4" />
    <vehicle id="right_30" type="Car" route="right" depart="5" />
    <vehicle id="right_31" type="Car" route="left" depart="5" />
    <vehicle id="right_32" type="Car" route="up" depart="5" />
    <vehicle id="right_33" type="Car" route="down" depart="5" />
    <vehicle id="right_34" type="Car" route="up2" depart="5" />
    <vehicle id="right_35" type="Car" route="down2" depart="5" />
    <vehicle id="right_36" type="Car" route="right" depart="6" />
    <vehicle id="right_37" type="Car" route="left" depart="6" />
    <vehicle id="right_38" type="Car" route="up" depart="6" />
    <vehicle id="right_39" type="Car" route="down" depart="6" />
    <vehicle id="right_40" type="Car" route="up2" depart="6" />
    <vehicle id="right_41" type="Car" route="down2" depart="6" />
    <vehicle id="right_42" type="Car" route="right" depart="7" />
    <vehicle id="right_43" type="Car" route="left" depart="7" />
    <vehicle id="right_44" type="Car" route="up" depart="7" />
    <vehicle id="right_45" type="Car" route="down" depart="7" />
    <vehicle id="right_46" type="Car" route="up2" depart="7" />
    <vehicle id="right_47" type="Car" route="down2" depart="7" />
    <vehicle id="right_48" type="Car" route="right" depart="8" />
    <vehicle id="right_49" type="Car" route="left" depart="8" />
    <vehicle id="right_50" type="Car" route="up" depart="8" />
    <vehicle id="right_51" type="Car" route="down" depart="8" />
    <vehicle id="right_52" type="Car" route="up2" depart="8" />
    <vehicle id="right_53" type="Car" route="down2" depart="8" />
    <vehicle id="right_54" type="Car" route="right" depart="9" />
    <vehicle id="right_55" type="Car" route="left" depart="9" />
    <vehicle id="right_56" type="Car" route="up" depart="9" />
    <vehicle id="right_57" type="Car" route="down" depart="9" />
    <vehicle id="right_58" type="Car" route="up2" depart="9" />
    <vehicle id="right_59" type="Car" route="down2" depart="9" />
    <vehicle id="right_60" type="Car" route="right" depart="10" />
    <vehicle id="right_61" type="Car" route="left" depart="10" />
    <vehicle id="right_62" type="Car" route="up" depart="10" />
    <vehicle id="right_63" type="Car" route="down" depart="10" />
    <vehicle id="right_64" type="Car" route="up2" depart="10" />
    <vehicle id="right_65" type="Car" route="down2" depart="10" />
    <vehicle id="right_66" type="Car" route="right" depart="11" />
    <vehicle id="right_67" type="Car" route="left" depart="11" />
    <vehicle id="right_68" type="Car" route="up" depart="11" />
    <vehicle id="right_69" type="Car" route="down" depart="11" />
    <vehicle id="right_70" type="Car" route="up2" depart="11" />
    <vehicle id="right_71" type="Car" route="down2" depart="11" />
    <vehicle id="right_72" type="Car" route="right" depart="12" />
    <vehicle id="right_73" type="Car" route="left" depart="12" />
    <vehicle id="right_74" type="Car" route="up" depart="12" />
    <vehicle id="right_75" type="Car" route="down" depart="12" />
    <vehicle id="right_76" type="Car" route="up2" depart="12" />
    <vehicle id="right_77" type="Car" route="down2" depart="12" />
    <vehicle id="right_78" type="Car" route="right" depart="13" />
    <vehicle id="right_79" type="Car" route="left" depart="13" />
    <vehicle id="right_80" type="Car" route="up" depart="13" />
    <vehicle id="right_81" type="Car" route="down" depart="13" />
    <vehicle id="right_82" type="Car" route="up2" depart="13" />
    <vehicle id="right_83" type="Car" route="down2" depart="13" />
    <vehicle id="right_84" type="Car" route="right" depart="14" />
    <vehicle id="right_85" type="Car" route="left" depart="14" />
    <vehicle id="right_86" type="Car" route="up" depart="14" />
    <vehicle id="right_87" type="Car" route="down" depart="14" />
    <vehicle id="right_88" type="Car" route="up2" depart="14" />
    <vehicle id="right_89" type="Car" route="down2" depart="14" />
    <vehicle id="right_90" type="Car" route="right" depart="15" />
    <vehicle id="right_91" type="Car" route="left" depart="15" />
    <vehicle id="right_92" type="Car" route="up" depart="15" />
    <vehicle id="right_93" type="Car" route="down" depart="15" />
    <vehicle id="right_94" type="Car" route="up2" depart="15" />
    <vehicle id="right_95" type="Car" route="down2" depart="15" />
    <vehicle id="right_96" type="Car" route="right" depart="16" />
    <vehicle id="right_97" type="Car" route="left" depart="16" />
    <vehicle id="right_98" type="Car" route="up" depart="16" />
    <vehicle id="right_99" type="Car" route="down" depart="16" />
    <vehicle id="right_100" type="Car" route="up2" depart="16" />
    <vehicle id="right_101" type="Car" route="down2" depart="16" />
    <vehicle id="right_102" type="Car" route="right" depart="17" />
    <vehicle id="right_103" type="Car" route="left" depart="17" />
    <vehicle id="right_104" type="Car" route="up" depart="17" />
    <vehicle id="right_105" type="Car" route="down" depart="17" />
    <vehicle id="right_106" type="Car" route="up2" depart="17" />
    <vehicle id="right_107" type="Car" route="down2" depart="17" />
    <vehicle id="right_108" type="Car" route="right" depart="18" />
    <vehicle id="right_109" type="Car" route="left" depart="18" />
    <vehicle id="right_110" type="Car" route="up" depart="18" />
    <vehicle id="right_111" type="Car" route="down" depart="18" />
    <vehicle id="right_112" type="Car" route="up2" depart="18" />
    <vehicle id="right_113" type="Car" route="down2" depart="18" />
    <vehicle id="right_114" type="Car" route="right" depart="19" />
    <vehicle id="right_115" type="Car" route="left" depart="19" />
    <vehicle id="right_116" type="Car" route="up" depart="19" />
    <vehicle id="right_117" type="Car" route="down" depart="19" />
    <vehicle id="right_118" type="Car" route="up2" depart="19" />
    <vehicle id="right_119" type="Car" route="down2" depart="19" />
    <vehicle id="right_120" type="Car" route="right" depart="20" />
    <vehicle id="right_121" type="Car" route="left" depart="20" />
    <vehicle id="right_122" type="Car" route="up" depart="20" />
    <vehicle id="right_123" type="Car" route="down" depart="20" />
    <vehicle id="right_124" type="Car" route="up2" depart="20" />
    <vehicle id="right_125" type="Car" route="down2" depart="20" />
    <vehicle id="right_126" type="Car" route="right" depart="21" />
    <vehicle id="right_127" type="Car" route="left" depart="21" />
    <vehicle id="right_128" type="Car" route="up" depart="21" />
    <vehicle id="right_129" type="Car" route="down" depart="21" />
    <vehicle id="right_130" type="Car" route="up2" depart="21" />
    <vehicle id="right_131" type="Car" route="down2" depart="21" />
    <vehicle id="right_132" type="Car" route="right" depart="22" />
    <vehicle id="right_133" type="Car" route="left" depart="22" />
    <vehicle id="right_134" type="Car" route="up" depart="22" />
    <vehicle id="right_135" type="Car" route="down" depart="22" />
    <vehicle id="right_136" type="Car" route="up2" depart="22" />
    <vehicle id="right_137" type="Car" route="down2" depart="22" />
    <vehicle id="right_138" type="Car" route="right" depart="23" />
    <vehicle id="right_139" type="Car" route="left" depart="23" />
    <vehicle id="right_140" type="Car" route="up" depart="23" />
    <vehicle id="right_141" type="Car" route="down" depart="23" />
    <vehicle id="right_142" type="Car" route="up2" depart="23" />
    <vehicle id="right_143" type="Car" route="down2" depart="23" />
    <vehicle id="right_144" type="Car" route="right" depart="24" />
    <vehicle id="right_145" type="Car" route="left" depart="24" />
    <vehicle id="right_146" type="Car" route="up" depart="24" />
    <vehicle id="right_147" type="Car" route="down" depart="24" />
    <vehicle id="right_148" type="Car" route="up2" depart="24" />
    <vehicle id="right_149" type="Car" route="down2" depart="24" />
    <vehicle id="right_150" type="Car" route="right" depart="25" />
    <vehicle id="right_151" type="Car" route="left" depart="25" />
    <vehicle id="right_152" type="Car" route="up" depart="25" />
    <vehicle id="right_153" type="Car" route="down" depart="25" />
    <vehicle id="right_154" type="Car" route="up2" depart="25" />
    <vehicle id="right_155" type="Car" route="down2" depart="25" />
    <vehicle id="right_156" type="Car" route="right" depart="26" />
    <vehicle id="right_157" type="Car" route="left" depart="26" />
    <vehicle id="right_158" type="Car" route="up" depart="26" />
    <vehicle id="right_159" type="Car" route="down" depart="26" />
    <vehicle id="right_160" type="Car" route="up2" depart="26" />
    <vehicle id="right_161" type="Car" route="down2" depart="26" />
    <vehicle id="right_162" type="Car" route="right" depart="27" />
    <vehicle id="right_163" type="Car" route="left" depart="27" />
    <vehicle id="right_164" type="Car" route="up" depart="27" />
    <vehicle id="right_165" type="Car" route="down" depart="27" />
    <vehicle id="right_166" type="Car" route="up2" depart="27" />
    <vehicle id="right_167" type="Car" route="down2" depart="27" />
    <vehicle id="right_168" type="Car" route="right" depart="28" />
    <vehicle id="right_169" type="Car" route="left" depart="28" />
    <vehicle id="right_170" type="Car" route="up" depart="28" />
    <vehicle id="right_171" type="Car" route="down" depart="28" />
    <vehicle id="right_172" type="Car" route="up2" depart="28" />
    <vehicle id="right_173" type="Car" route="down2" depart="28" />
    <vehicle id="right_174" type="Car" route="right" depart="29" />
    <vehicle id="right_175" type="Car" route="left" depart="29" />
    <vehicle id="right_176" type="Car" route="up" depart="29" />
    <vehicle id="right_177" type="Car" route="down" depart="29" />
    <vehicle id="right_178" type="Car" route="up2" depart="29" />
    <vehicle id="right_179" type="Car" route="down2" depart="29" />
    <vehicle id="right_180" type="Car" route="right" depart="30" />
    <vehicle id="right_181" type="Car" route="left" depart="30" />
    <vehicle id="right_182" type="Car" route="up" depart="30" />
    <vehicle id="right_183" type="Car" route="down" depart="30" />
    <vehicle id="right_184" type="Car" route="up2" depart="30" />
    <vehicle id="right_185" type="Car" route="down2" depart="30" />
    <vehicle id="right_186" type="Car" route="right" depart="31" />
    <vehicle id="right_187" type="Car" route="left" depart="31" />
    <vehicle id="right_188" type="Car" route="up" depart="31" />
    <vehicle id="right_189" type="Car" route="down" depart="31" />
    <vehicle id="right_190" type="Car" route="up2" depart="31" />
    <vehicle id="right_191" type="Car" route="down2" depart="31" />
    <vehicle id="right_192" type="Car" route="right" depart="32" />
    <vehicle id="right_193" type="Car" route="left" depart="32" />
    <vehicle id="right_194" type="Car" route="up" depart="32" />
    <vehicle id="right_195" type="Car" route="down" depart="32" />
    <vehicle id="right_196" type="Car" route="up2" depart="32" />
    <vehicle id="right_197" type="Car" route="down2" depart="32" />
    <vehicle id="right_198" type="Car" route="right" depart="33" />
    <vehicle id="right_199" type="Car" route="left" depart="33" />
    <vehicle id="right_200" type="Car" route="up" depart="33" />
    <vehicle id="right_201" type="Car" route="down" depart="33" />
    <vehicle id="right_202" type="Car" route="up2" depart="33" />
    <vehicle id="right_203" type="Car" route="down2" depart="33" />
    <vehicle id="right_204" type="Car" route="right" depart="34" />
    <vehicle id="right_205" type="Car" route="left" depart="34" />
    <vehicle id="right_206" type="Car" route="up" depart="34" />
    <vehicle id="right_207" type="Car" route="down" depart="34" />
    <vehicle id="right_208" type="Car" route="up2" depart="34" />
    <vehicle id="right_209" type="Car" route="down2" depart="34" />
    <vehicle id="right_210" type="Car" route="right" depart="35" />
    <vehicle id="right_211" type="Car" route="left" depart="35" />
    <vehicle id="right_212" type="Car" route="up" depart="35" />
    <vehicle id="right_213" type="Car" route="down" depart="35" />
    <vehicle id="right_214" type="Car" route="up2" depart="35" />
    <vehicle id="right_215" type="Car" route="down2" depart="35" />
    <vehicle id="right_216" type="Car" route="right" depart="36" />
    <vehicle id="right_217" type="Car" route="left" depart="36" />
    <vehicle id="right_218" type="Car" route="up" depart="36" />
    <vehicle id="right_219" type="Car" route="down" depart="36" />
    <vehicle id="right_220" type="Car" route="up2" depart="36" />
    <vehicle id="right_221" type="Car" route="down2" depart="36" />
    <vehicle id="right_222" type="Car" route="right" depart="37" />
    <vehicle id="right_223" type="Car" route="left" depart="37" />
    <vehicle id="right_224" type="Car" route="up" depart="37" />
    <vehicle id="right_225" type="Car" route="down" depart="37" />
    <vehicle id="right_226" type="Car" route="up2" depart="37" />
    <vehicle id="right_227" type="Car" route="down2" depart="37" />
    <vehicle id="right_228" type="Car" route="right" depart="38" />
    <vehicle id="right_229" type="Car" route="left" depart="38" />
    <vehicle id="right_230" type="Car" route="up" depart="38" />
    <vehicle id="right_231" type="Car" route="down" depart="38" />
    <vehicle id="right_232" type="Car" route="up2" depart="38" />
    <vehicle id="right_233" type="Car" route="down2" depart="38" />
    <vehicle id="right_234" type="Car" route="right" depart="39" />
    <vehicle id="right_235" type="Car" route="left" depart="39" />
    <vehicle id="right_236" type="Car" route="up" depart="39" />
    <vehicle id="right_237" type="Car" route="down" depart="39" />
    <vehicle id="right_238" type="Car" route="up2" depart="39" />
    <vehicle id="right_239" type="Car" route="down2" depart="39" />
    <vehicle id="right_240" type="Car" route="right" depart="40" />
    <vehicle id="right_241" type="Car" route="left" depart="40" />
    <vehicle id="right_242" type="Car" route="up" depart="40" />
    <vehicle id="right_243" type="Car" route="down" depart="40" />
    <vehicle id="right_244" type="Car" route="up2" depart="40" />
    <vehicle id="right_245" type="Car" route="down2" depart="40" />
    <vehicle id="right_246" type="Car" route="right" depart="41" />
    <vehicle id="right_247" type="Car" route="left" depart="41" />
    <vehicle id="right_248" type="Car" route="up" depart="41" />
    <vehicle id="right_249" type="Car" route="down" depart="41" />
    <vehicle id="right_250" type="Car" route="up2" depart="41" />
    <vehicle id="right_251" type="Car" route="down2" depart="41" />
    <vehicle id="right_252" type="Car" route="right" depart="42" />
    <vehicle id="right_253" type="Car" route="left" depart="42" />
    <vehicle id="right_254" type="Car" route="up" depart="42" />
    <vehicle id="right_255" type="Car" route="down" depart="42" />
    <vehicle id="right_256" type="Car" route="up2" depart="42" />
    <vehicle id="right_257" type="Car" route="down2" depart="42" />
    <vehicle id="right_258" type="Car" route="right" depart="43" />
    <vehicle id="right_259" type="Car" route="left" depart="43" />
    <vehicle id="right_260" type="Car" route="up" depart="43" />
    <vehicle id="right_261" type="Car" route="down" depart="43" />
    <vehicle id="right_262" type="Car" route="up2" depart="43" />
    <vehicle id="right_263" type="Car" route="down2" depart="43" />
    <vehicle id="right_264" type="Car" route="right" depart="44" />
    <vehicle id="right_265" type="Car" route="left" depart="44" />
    <vehicle id="right_266" type="Car" route="up" depart="44" />
    <vehicle id="right_267" type="Car" route="down" depart="44" />
    <vehicle id="right_268" type="Car" route="up2" depart="44" />
    <vehicle id="right_269" type="Car" route="down2" depart="44" />
    <vehicle id="right_270" type="Car" route="right" depart="45" />
    <vehicle id="right_271" type="Car" route="left" depart="45" />
    <vehicle id="right_272" type="Car" route="up" depart="45" />
    <vehicle id="right_273" type="Car" route="down" depart="45" />
    <vehicle id="right_274" type="Car" route="up2" depart="45" />
    <vehicle id="right_275" type="Car" route="down2" depart="45" />
    <vehicle id="right_276" type="Car" route="right" depart="46" />
    <vehicle id="right_277" type="Car" route="left" depart="46" />
    <vehicle id="right_278" type="Car" route="up" depart="46" />
    <vehicle id="right_279" type="Car" route="down" depart="46" />
    <vehicle id="right_280" type="Car" route="up2" depart="46" />
    <vehicle id="right_281" type="Car" route="down2" depart="46" />
    <vehicle id="right_282" type="Car" route="right" depart="47" />
    <vehicle id="right_283" type="Car" route="left" depart="47" />
    <vehicle id="right_284" type="Car" route="up" depart="47" />
    <vehicle id="right_285" type="Car" route="down" depart="47" />
    <vehicle id="right_286" type="Car" route="up2" depart="47" />
    <vehicle id="right_287" type="Car" route="down2" depart="47" />
    <vehicle id="right_288" type="Car" route="right" depart="48" />
    <vehicle id="right_289" type="Car" route="left" depart="48" />
    <vehicle id="right_290" type="Car" route="up" depart="48" />
    <vehicle id="right_291" type="Car" route="down" depart="48" />
    <vehicle id="right_292" type="Car" route="up2" depart="48" />
    <vehicle id="right_293" type="Car" route="down2" depart="48" />
    <vehicle id="right_294" type="Car" route="right" depart="49" />
    <vehicle id="right_295" type="Car" route="left" depart="49" />
    <vehicle id="right_296" type="Car" route="up" depart="49" />
    <vehicle id="right_297" type="Car" route="down" depart="49" />
    <vehicle id="right_298" type="Car" route="up2" depart="49" />
    <vehicle id="right_299" type="Car" route="down2" depart="49" />
    <vehicle id="right_300" type="Car" route="right" depart="50" />
    <vehicle id="right_301" type="Car" route="left" depart="50" />
    <vehicle id="right_302" type="Car" route="up" depart="50" />
    <vehicle id="right_303" type="Car" route="down" depart="50" />
    <vehicle id="right_304" type="Car" route="up2" depart="50" />
    <vehicle id="right_305" type="Car" route="down2" depart="50" />
    <vehicle id="right_306" type="Car" route="right" depart="51" />
    <vehicle id="right_307" type="Car" route="left" depart="51" />
    <vehicle id="right_308" type="Car" route="up" depart="51" />
    <vehicle id="right_309" type="Car" route="down" depart="51" />
    <vehicle id="right_310" type="Car" route="up2" depart="51" />
    <vehicle id="right_311" type="Car" route="down2" depart="51" />
    <vehicle id="right_312" type="Car" route="right" depart="52" />
    <vehicle id="right_313" type="Car" route="left" depart="52" />
    <vehicle id="right_314" type="Car" route="up" depart="52" />
    <vehicle id="right_315" type="Car" route="down" depart="52" />
    <vehicle id="right_316" type="Car" route="up2" depart="52" />
    <vehicle id="right_317" type="Car" route="down2" depart="52" />
    <vehicle id="right_318" type="Car" route="right" depart="53" />
    <vehicle id="right_319" type="Car" route="left" depart="53" />
    <vehicle id="right_320" type="Car" route="up" depart="53" />
    <vehicle id="right_321" type="Car" route="down" depart="53" />
    <vehicle id="right_322" type="Car" route="up2" depart="53" />
    <vehicle id="right_323" type="Car" route="down2" depart="53" />
    <vehicle id="right_324" type="Car" route="right" depart="54" />
    <vehicle id="right_325" type="Car" route="left" depart="54" />
    <vehicle id="right_326" type="Car" route="up" depart="54" />
    <vehicle id="right_327" type="Car" route="down" depart="54" />
    <vehicle id="right_328" type="Car" route="up2" depart="54" />
    <vehicle id="right_329" type="Car" route="down2" depart="54" />
    <vehicle id="right_330" type="Car" route="right" depart="55" />
    <vehicle id="right_331" type="Car" route="left" depart="55" />
    <vehicle id="right_332" type="Car" route="up" depart="55" />
    <vehicle id="right_333" type="Car" route="down" depart="55" />
    <vehicle id="right_334" type="Car" route="up2" depart="55" />
    <vehicle id="right_335" type="Car" route="down2" depart="55" />
    <vehicle id="right_336" type="Car" route="right" depart="56" />
    <vehicle id="right_337" type="Car" route="left" depart="56" />
    <vehicle id="right_338" type="Car" route="up" depart="56" />
    <vehicle id="right_339" type="Car" route="down" depart="56" />
    <vehicle id="right_340" type="Car" route="up2" depart="56" />
    <vehicle id="right_341" type="Car" route="down2" depart="56" />
    <vehicle id="right_342" type="Car" route="right" depart="57" />
    <vehicle id="right_343" type="Car" route="left" depart="57" />
    <vehicle id="right_344" type="Car" route="up" depart="57" />
    <vehicle id="right_345" type="Car" route="down" depart="57" />
    <vehicle id="right_346" type="Car" route="up2" depart="57" />
    <vehicle id="right_347" type="Car" route="down2" depart="57" />
    <vehicle id="right_348" type="Car" route="right" depart="58" />
    <vehicle id="right_349" type="Car" route="left" depart="58" />
    <vehicle id="right_350" type="Car" route="up" depart="58" />
    <vehicle id="right_351" type="Car" route="down" depart="58" />
    <vehicle id="right_352" type="Car" route="up2" depart="58" />
    <vehicle id="right_353" type="Car" route="down2" depart="58" />
    <vehicle id="right_354" type="Car" route="right" depart="59" />
    <vehicle id="right_355" type="Car" route="left" depart="59" />
    <vehicle id="right_356" type="Car" route="up" depart="59" />
    <vehicle id="right_357" type="Car" route="down" depart="59" />
    <vehicle id="right_358" type="Car" route="up2" depart="59" />
    <vehicle id="right_359" type="Car" route="down2" depart="59" />
    <vehicle id="right_360" type="Car" route="right" depart="60" />
    <vehicle id="right_361" type="Car" route="left" depart="60" />
    <vehicle id="right_362" type="Car" route="up" depart="60" />
    <vehicle id="right_363" type="Car" route="down" depart="60" />
    <vehicle id="right_364" type="Car" route="up2" depart="60" />
    <vehicle id="right_365" type="Car" route="down2" depart="60" />
    <vehicle id="right_366" type="Car" route="right" depart="61" />
    <vehicle id="right_367" type="Car" route="left" depart="61" />
    <vehicle id="right_368" type="Car" route="up" depart="61" />
    <vehicle id="right_369" type="Car" route="down" depart="61" />
    <vehicle id="right_370" type="Car" route="up2" depart="61" />
    <vehicle id="right_371" type="Car" route="down2" depart="61" />
    <vehicle id="right_372" type="Car" route="right" depart="62" />
    <vehicle id="right_373" type="Car" route="left" depart="62" />
    <vehicle id="right_374" type="Car" route="up" depart="62" />
    <vehicle id="right_375" type="Car" route="down" depart="62" />
    <vehicle id="right_376" type="Car" route="up2" depart="62" />
    <vehicle id="right_377" type="Car" route="down2" depart="62" />
    <vehicle id="right_378" type="Car" route="right" depart="63" />
    <vehicle id="right_379" type="Car" route="left" depart="63" />
    <vehicle id="right_380" type="Car" route="up" depart="63" />
    <vehicle id="right_381" type="Car" route="down" depart="63" />
    <vehicle id="right_382" type="Car" route="up2" depart="63" />
    <vehicle id="right_383" type="Car" route="down2" depart="63" />
    <vehicle id="right_384" type="Car" route="right" depart="64" />
    <vehicle id="right_385" type="Car" route="left" depart="64" />
    <vehicle id="right_386" type="Car" route="up" depart="64" />
    <vehicle id="right_387" type="Car" route="down" depart="64" />
    <vehicle id="right_388" type="Car" route="up2" depart="64" />
    <vehicle id="right_389" type="Car" route="down2" depart="64" />
    <vehicle id="right_390" type="Car" route="right" depart="65" />
    <vehicle id="right_391" type="Car" route="left" depart="65" />
    <vehicle id="right_392" type="Car" route="up" depart="65" />
    <vehicle id="right_393" type="Car" route="down" depart="65" />
    <vehicle id="right_394" type="Car" route="up2" depart="65" />
    <vehicle id="right_395" type="Car" route="down2" depart="65" />
    <vehicle id="right_396" type="Car" route="right" depart="66" />
    <vehicle id="right_397" type="Car" route="left" depart="66" />
    <vehicle id="right_398" type="Car" route="up" depart="66" />
    <vehicle id="right_399" type="Car" route="down" depart="66" />
    <vehicle id="right_400" type="Car" route="up2" depart="66" />
    <vehicle id="right_401" type="Car" route="down2" depart="66" />
    <vehicle id="right_402" type="Car" route="right" depart="67" />
    <vehicle id="right_403" type="Car" route="left" depart="67" />
    <vehicle id="right_404" type="Car" route="up" depart="67" />
    <vehicle id="right_405" type="Car" route="down" depart="67" />
    <vehicle id="right_406" type="Car" route="up2" depart="67" />
    <vehicle id="right_407" type="Car" route="down2" depart="67" />
    <vehicle id="right_408" type="Car" route="right" depart="68" />
    <vehicle id="right_409" type="Car" route="left" depart="68" />
    <vehicle id="right_410" type="Car" route="up" depart="68" />
    <vehicle id="right_411" type="Car" route="down" depart="68" />
    <vehicle id="right_412" type="Car" route="up2" depart="68" />
    <vehicle id="right_413" type="Car" route="down2" depart="68" />
    <vehicle id="right_414" type="Car" route="right" depart="69" />
    <vehicle id="right_415" type="Car" route="left" depart="69" />
    <vehicle id="right_416" type="Car" route="up" depart="69" />
    <vehicle id="right_417" type="Car" route="down" depart="69" />
    <vehicle id="right_418" type="Car" route="up2" depart="69" />
    <vehicle id="right_419" type="Car" route="down2" depart="69" />
    <vehicle id="right_420" type="Car" route="right" depart="70" />
    <vehicle id="right_421" type="Car" route="left" depart="70" />
    <vehicle id="right_422" type="Car" route="up" depart="70" />
    <vehicle id="right_423" type="Car" route="down" depart="70" />
    <vehicle id="right_424" type="Car" route="up2" depart="70" />
    <vehicle id="right_425" type="Car" route="down2" depart="70" />
    <vehicle id="right_426" type="Car" route="right" depart="71" />
    <vehicle id="right_427" type="Car" route="left" depart="71" />
    <vehicle id="right_428" type="Car" route="up" depart="71" />
    <vehicle id="right_429" type="Car" route="down" depart="71" />
    <vehicle id="right_430" type="Car" route="up2" depart="71" />
    <vehicle id="right_431" type="Car" route="down2" depart="71" />
    <vehicle id="right_432" type="Car" route="right" depart="72" />
    <vehicle id="right_433" type="Car" route="left" depart="72" />
    <vehicle id="right_434" type="Car" route="up" depart="72" />
    <vehicle id="right_435" type="Car" route="down" depart="72" />
    <vehicle id="right_436" type="Car" route="up2" depart="72" />
    <vehicle id="right_437" type="Car" route="down2" depart="72" />
    <vehicle id="right_438" type="Car" route="right" depart="73" />
    <vehicle id="right_439" type="Car" route="left" depart="73" />
    <vehicle id="right_440" type="Car" route="up" depart="73" />
    <vehicle id="right_441" type="Car" route="down" depart="73" />