<routes>
                <vType accel="2.6" decel="4.5" id="Car" length="4.0" maxSpeed="70.0" sigma="0.4" guiShape="passenger" />
                <route id="right" edges="W_0 0_1" />
                <route id="down" edges="N_0 0_S" />
                <route id="left" edges="1_0 0_W" />
                <route id="rd" edges="W_0 0_S" />
                <route id="ur" edges="S_0 0_1" />
                <route id="lu" edges="1_0 0_N" />
                <route id="dl" edges="N_0 0_W" />
                <route id="up" edges="S_0 0_N" />
    <vehicle id="ur_0" type="Car" route="ur" depart="5.0" />
    <vehicle id="left_1" type="Car" route="left" depart="27.0" />
    <vehicle id="up_2" type="Car" route="up" depart="56.0" />
    <vehicle id="up_3" type="Car" route="up" depart="59.0" />
    <vehicle id="left_4" type="Car" route="left" depart="63.0" />
    <vehicle id="up_5" type="Car" route="up" depart="68.0" />
    <vehicle id="rd_6" type="Car" route="rd" depart="68.0" />
    <vehicle id="right_7" type="Car" route="right" depart="69.0" />
    <vehicle id="down_8" type="Car" route="down" depart="70.0" />
    <vehicle id="right_9" type="Car" route="right" depart="71.0" />
    <vehicle id="down_10" type="Car" route="down" depart="81.0" />
    <vehicle id="left_11" type="Car" route="left" depart="83.0" />
    <vehicle id="dl_12" type="Car" route="dl" depart="85.0" />
    <vehicle id="left_13" type="Car" route="left" depart="100.0" />
    <vehicle id="left_14" type="Car" route="left" depart="107.0" />
    <vehicle id="ur_15" type="Car" route="ur" depart="113.0" />
    <vehicle id="up_16" type="Car" route="up" depart="117.0" />
    <vehicle id="right_17" type="Car" route="right" depart="124.0" />
    <vehicle id="rd_18" type="Car" route="rd" depart="131.0" />
    <vehicle id="right_19" type="Car" route="right" depart="131.0" />
    <vehicle id="right_20" type="Car" route="right" depart="131.0" />
    <vehicle id="down_21" type="Car" route="down" depart="131.0" />
    <vehicle id="left_22" type="Car" route="left" depart="135.0" />
    <vehicle id="rd_23" type="Car" route="rd" depart="137.0" />
    <vehicle id="up_24" type="Car" route="up" depart="149.0" />
    <vehicle id="left_25" type="Car" route="left" depart="156.0" />
    <vehicle id="ur_26" type="Car" route="ur" depart="161.0" />
    <vehicle id="left_27" type="Car" route="left" depart="164.0" />
    <vehicle id="up_28" type="Car" route="up" depart="165.0" />
    <vehicle id="right_29" type="Car" route="right" depart="169.0" />
    <vehicle id="down_30" type="Car" route="down" depart="175.0" />
    <vehicle id="right_31" type="Car" route="right" depart="180.0" />
    <vehicle id="down_32" type="Car" route="down" depart="182.0" />
    <vehicle id="left_33" type="Car" route="left" depart="182.0" />
    <vehicle id="ur_34" type="Car" route="ur" depart="187.0" />
    <vehicle id="left_35" type="Car" route="left" depart="192.0" />
    <vehicle id="up_36" type="Car" route="up" depart="192.0" />
    <vehicle id="right_37" type="Car" route="right" depart="192.0" />
    <vehicle id="down_38" type="Car" route="down" depart="194.0" />
    <vehicle id="left_39" type="Car" route="left" depart="194.0" />
    <vehicle id="right_40" type="Car" route="right" depart="199.0" />
    <vehicle id="up_41" type="Car" route="up" depart="199.0" />
    <vehicle id="up_42" type="Car" route="up" depart="206.0" />
    <vehicle id="down_43" type="Car" route="down" depart="213.0" />
    <vehicle id="left_44" type="Car" route="left" depart="216.0" />
    <vehicle id="right_45" type="Car" route="right" depart="217.0" />
    <vehicle id="up_46" type="Car" route="up" depart="227.0" />
    <vehicle id="right_47" type="Car" route="right" depart="232.0" />
    <vehicle id="down_48" type="Car" route="down" depart="233.0" />
    <vehicle id="left_49" type="Car" route="left" depart="235.0" />
    <vehicle id="right_50" type="Car" route="right" depart="238.0" />
    <vehicle id="up_51" type="Car" route="up" depart="239.0" />
    <vehicle id="up_52" type="Car" route="up" depart="243.0" />
    <vehicle id="down_53" type="Car" route="down" depart="244.0" />
    <vehicle id="dl_54" type="Car" route="dl" depart="253.0" />
    <vehicle id="down_55" type="Car" route="down" depart="258.0" />
    <vehicle id="up_56" type="Car" route="up" depart="258.0" />
    <vehicle id="left_57" type="Car" route="left" depart="260.0" />
    <vehicle id="lu_58" type="Car" route="lu" depart="262.0" />
    <vehicle id="left_59" type="Car" route="left" depart="266.0" />
    <vehicle id="up_60" type="Car" route="up" depart="270.0" />
    <vehicle id="up_61" type="Car" route="up" depart="275.0" />
    <vehicle id="left_62" type="Car" route="left" depart="276.0" />
    <vehicle id="left_63" type="Car" route="left" depart="277.0" />
    <vehicle id="down_64" type="Car" route="down" depart="278.0" />
    <vehicle id="right_65" type="Car" route="right" depart="280.0" />
    <vehicle id="right_66" type="Car" route="right" depart="286.0" />
    <vehicle id="dl_67" type="Car" route="dl" depart="287.0" />
    <vehicle id="right_68" type="Car" route="right" depart="291.0" />
    <vehicle id="left_69" type="Car" route="left" depart="295.0" />
    <vehicle id="up_70" type="Car" route="up" depart="300.0" />
    <vehicle id="down_71" type="Car" route="down" depart="307.0" />
    <vehicle id="left_72" type="Car" route="left" depart="308.0" />
    <vehicle id="up_73" type="Car" route="up" depart="309.0" />
    <vehicle id="rd_74" type="Car" route="rd" depart="314.0" />
    <vehicle id="up_75" type="Car" route="up" depart="326.0" />
    <vehicle id="up_76" type="Car" route="up" depart="327.0" />
    <vehicle id="left_77" type="Car" route="left" depart="328.0" />
    <vehicle id="left_78" type="Car" route="left" depart="332.0" />
    <vehicle id="right_79" type="Car" route="right" depart="340.0" />
    <vehicle id="down_80" type="Car" route="down" depart="346.0" />
    <vehicle id="down_81" type="Car" route="down" depart="350.0" />
    <vehicle id="up_82" type="Car" route="up" depart="355.0" />
    <vehicle id="right_83" type="Car" route="right" depart="356.0" />
    <vehicle id="right_84" type="Car" route="right" depart="362.0" />
    <vehicle id="right_85" type="Car" route="right" depart="366.0" />
    <vehicle id="down_86" type="Car" route="down" depart="366.0" />
    <vehicle id="dl_87" type="Car" route="dl" depart="367.0" />
    <vehicle id="down_88" type="Car" route="down" depart="367.0" />
    <vehicle id="dl_89" type="Car" route="dl" depart="369.0" />
    <vehicle id="right_90" type="Car" route="right" depart="370.0" />
    <vehicle id="left_91" type="Car" route="left" depart="374.0" />
    <vehicle id="ur_92" type="Car" route="ur" depart="385.0" />
    <vehicle id="right_93" type="Car" route="right" depart="387.0" />
    <vehicle id="lu_94" type="Car" route="lu" depart="408.0" />
    <vehicle id="up_95" type="Car" route="up" depart="411.0" />
    <vehicle id="up_96" type="Car" route="up" depart="413.0" />
    <vehicle id="left_97" type="Car" route="left" depart="425.0" />
    <vehicle id="up_98" type="Car" route="up" depart="431.0" />
    <vehicle id="left_99" type="Car" route="left" depart="433.0" />
    <vehicle id="left_100" type="Car" route="left" depart="436.0" />
    <vehicle id="up_101" type="Car" route="up" depart="438.0" />
    <vehicle id="up_102" type="Car" route="up" depart="440.0" />
    <vehicle id="down_103" type="Car" route="down" depart="440.0" />
    <vehicle id="down_104" type="Car" route="down" depart="447.0" />
    <vehicle id="down_105" type="Car" route="down" depart="449.0" />
    <vehicle id="lu_106" type="Car" route="lu" depart="451.0" />
    <vehicle id="dl_107" type="Car" route="dl" depart="452.0" />
    <vehicle id="ur_108" type="Car" route="ur" depart="453.0" />
    <vehicle id="left_109" type="Car" route="left" depart="454.0" />
    <vehicle id="down_110" type="Car" route="down" depart="458.0" />
    <vehicle id="rd_111" type="Car" route="rd" depart="459.0" />
    <vehicle id="up_112" type="Car" route="up" depart="462.0" />
    <vehicle id="left_113" type="Car" route="left" depart="462.0" />
    <vehicle id="left_114" type="Car" route="left" depart="465.0" />
    <vehicle id="right_115" type="Car" route="right" depart="466.0" />
    <vehicle id="down_116" type="Car" route="down" depart="467.0" />
    <vehicle id="down_117" type="Car" route="down" depart="469.0" />
    <vehicle id="right_118" type="Car" route="right" depart="470.0" />
    <vehicle id="down_119" type="Car" route="down" depart="472.0" />
    <vehicle id="down_120" type="Car" route="down" depart="483.0" />
    <vehicle id="right_121" type="Car" route="right" depart="490.0" />
    <vehicle id="up_122" type="Car" route="up" depart="490.0" />
    <vehicle id="up_123" type="Car" route="up" depart="492.0" />
    <vehicle id="down_124" type="Car" route="down" depart="493.0" />
    <vehicle id="up_125" type="Car" route="up" depart="494.0" />
    <vehicle id="left_126" type="Car" route="left" depart="494.0" />
    <vehicle id="up_127" type="Car" route="up" depart="498.0" />
    <vehicle id="up_128" type="Car" route="up" depart="505.0" />
    <vehicle id="down_129" type="Car" route="down" depart="522.0" />
    <vehicle id="dl_130" type="Car" route="dl" depart="522.0" />
    <vehicle id="left_131" type="Car" route="left" depart="526.0" />
    <vehicle id="up_132" type="Car" route="up" depart="527.0" />
    <vehicle id="right_133" type="Car" route="right" depart="533.0" />
    <vehicle id="dl_134" type="Car" route="dl" depart="538.0" />
    <vehicle id="down_135" type="Car" route="down" depart="539.0" />
    <vehicle id="right_136" type="Car" route="right" depart="542.0" />
    <vehicle id="down_137" type="Car" route="down" depart="543.0" />
    <vehicle id="left_138" type="Car" route="left" depart="543.0" />
    <vehicle id="up_139" type="Car" route="up" depart="544.0" />
    <vehicle id="down_140" type="Car" route="down" depart="546.0" />
    <vehicle id="up_141" type="Car" route="up" depart="548.0" />
    <vehicle id="up_142" type="Car" route="up" depart="557.0" />
    <vehicle id="right_143" type="Car" route="right" depart="559.0" />
    <vehicle id="rd_144" type="Car" route="rd" depart="564.0" />
    <vehicle id="rd_145" type="Car" route="rd" depart="569.0" />
    <vehicle id="down_146" type="Car" route="down" depart="576.0" />
    <vehicle id="up_147" type="Car" route="up" depart="584.0" />
    <vehicle id="right_148" type="Car" route="right" depart="585.0" />
    <vehicle id="right_149" type="Car" route="right" depart="586.0" />
    <vehicle id="up_150" type="Car" route="up" depart="587.0" />
    <vehicle id="rd_151" type="Car" route="rd" depart="589.0" />
    <vehicle id="up_152" type="Car" route="up" depart="589.0" />
    <vehicle id="dl_153" type="Car" route="dl" depart="590.0" />
    <vehicle id="right_154" type="Car" route="right" depart="591.0" />
    <vehicle id="left_155" type="Car" route="left" depart="592.0" />
    <vehicle id="rd_156" type="Car" route="rd" depart="593.0" />
    <vehicle id="up_157" type="Car" route="up" depart="608.0" />
    <vehicle id="down_158" type="Car" route="down" depart="624.0" />
    <vehicle id="left_159" type="Car" route="left" depart="635.0" />
    <vehicle id="down_160" type="Car" route="down" depart="635.0" />
    <vehicle id="left_161" type="Car" route="left" depart="639.0" />
    <vehicle id="left_162" type="Car" route="left" depart="641.0" />
    <vehicle id="right_163" type="Car" route="right" depart="642.0" />
    <vehicle id="down_164" type="Car" route="down" depart="664.0" />
    <vehicle id="down_165" type="Car" route="down" depart="671.0" />
    <vehicle id="left_166" type="Car" route="left" depart="679.0" />
    <vehicle id="ur_167" type="Car" route="ur" depart="685.0" />
    <vehicle id="rd_168" type="Car" route="rd" depart="701.0" />
    <vehicle id="lu_169" type="Car" route="lu" depart="706.0" />
    <vehicle id="left_170" type="Car" route="left" depart="723.0" />
    <vehicle id="rd_171" type="Car" route="rd" depart="725.0" />
    <vehicle id="down_172" type="Car" route="down" depart="725.0" />
    <vehicle id="up_173" type="Car" route="up" depart="733.0" />
    <vehicle id="lu_174" type="Car" route="lu" depart="737.0" />
    <vehicle id="ur_175" type="Car" route="ur" depart="750.0" />
    <vehicle id="lu_176" type="Car" route="lu" depart="752.0" />
    <vehicle id="right_177" type="Car" route="right" depart="764.0" />
    <vehicle id="left_178" type="Car" route="left" depart="764.0" />
    <vehicle id="left_179" type="Car" route="left" depart="772.0" />
    <vehicle id="ur_180" type="Car" route="ur" depart="773.0" />
    <vehicle id="dl_181" type="Car" route="dl" depart="773.0" />
    <vehicle id="up_182" type="Car" route="up" depart="801.0" />
    <vehicle id="ur_183" type="Car" route="ur" depart="804.0" />
    <vehicle id="up_184" type="Car" route="up" depart="810.0" />
    <vehicle id="left_185" type="Car" route="left" depart="814.0" />
    <vehicle id="right_186" type="Car" route="right" depart="820.0" />
    <vehicle id="lu_187" type="Car" route="lu" depart="821.0" />
    <vehicle id="down_188" type="Car" route="down" depart="850.0" />
    <vehicle id="left_189" type="Car" route="left" depart="863.0" />
    <vehicle id="right_190" type="Car" route="right" depart="864.0" />
    <vehicle id="up_191" type="Car" route="up" depart="890.0" />
    <vehicle id="down_192" type="Car" route="down" depart="915.0" />
    <vehicle id="lu_193" type="Car" route="lu" depart="925.0" />
    <vehicle id="lu_194" type="Car" route="lu" depart="929.0" />
    <vehicle id="right_195" type="Car" route="right" depart="935.0" />
    <vehicle id="up_196" type="Car" route="up" depart="936.0" />
    <vehicle id="rd_197" type="Car" route="rd" depart="1058.0" />
    <vehicle id="rd_198" type="Car" route="rd" depart="1060.0" />
    <vehicle id="up_199" type="Car" route="up" depart="1217.0" />
</routes>
