<?xml version="1.0" encoding="UTF-8"?>

<!-- generated on 10/13/20 21:27:13 by Eclipse SUMO netedit Version 1.6.0
<configuration xmlns:xsi="http://www.w3.org/2001/XMLSchema-instance" xsi:noNamespaceSchemaLocation="http://sumo.dlr.de/xsd/netconvertConfiguration.xsd">

    <input>
        <sumo-net-file value="C:\Users\Konrad\Desktop\Programy_Aplikacje\Traffic_RL\gym_env\envs\cfg_1\Intersection.net.xml"/>
    </input>

    <output>
        <output-file value="C:\Users\Konrad\Desktop\Programy_Aplikacje\Traffic_RL\gym_env\envs\cfg_1\Intersection.net.xml"/>
    </output>

    <processing>
        <geometry.min-radius.fix.railways value="false"/>
        <geometry.max-grade.fix value="false"/>
        <offset.disable-normalization value="true"/>
        <lefthand value="false"/>
    </processing>

    <junctions>
        <no-turnarounds value="true"/>
        <junctions.corner-detail value="5"/>
        <junctions.limit-turn-speed value="5.5"/>
        <rectangular-lane-cut value="false"/>
    </junctions>

    <pedestrian>
        <walkingareas value="false"/>
    </pedestrian>

    <report>
        <aggregate-warnings value="5"/>
    </report>

</configuration>
-->

<net version="1.6" junctionCornerDetail="5" limitTurnSpeed="5.50" xmlns:xsi="http://www.w3.org/2001/XMLSchema-instance" xsi:noNamespaceSchemaLocation="http://sumo.dlr.de/xsd/net_file.xsd">

    <location netOffset="0.00,0.00" convBoundary="-200.00,-200.00,200.00,200.00" origBoundary="-10000000000.00,-10000000000.00,10000000000.00,10000000000.00" projParameter="!"/>

    <edge id=":0_0" function="internal">
        <lane id=":0_0_0" index="0" speed="6.51" length="9.03" shape="-1.60,7.20 -1.95,4.75 -3.00,3.00 -4.75,1.95 -7.20,1.60"/>
    </edge>
    <edge id=":0_1" function="internal">
        <lane id=":0_1_0" index="0" speed="13.89" length="14.40" shape="-1.60,7.20 -1.60,-7.20"/>
    </edge>
    <edge id=":0_2" function="internal">
        <lane id=":0_2_0" index="0" speed="6.51" length="9.03" shape="7.20,1.60 4.75,1.95 3.00,3.00 1.95,4.75 1.60,7.20"/>
    </edge>
    <edge id=":0_3" function="internal">
        <lane id=":0_3_0" index="0" speed="13.89" length="14.40" shape="7.20,1.60 -7.20,1.60"/>
    </edge>
    <edge id=":0_4" function="internal">
        <lane id=":0_4_0" index="0" speed="6.51" length="9.03" shape="1.60,-7.20 1.95,-4.75 3.00,-3.00 4.75,-1.95 7.20,-1.60"/>
    </edge>
    <edge id=":0_5" function="internal">
        <lane id=":0_5_0" index="0" speed="13.89" length="14.40" shape="1.60,-7.20 1.60,7.20"/>
    </edge>
    <edge id=":0_6" function="internal">
        <lane id=":0_6_0" index="0" speed="6.51" length="9.03" shape="-7.20,-1.60 -4.75,-1.95 -3.00,-3.00 -1.95,-4.75 -1.60,-7.20"/>
    </edge>
    <edge id=":0_7" function="internal">
        <lane id=":0_7_0" index="0" speed="13.89" length="14.40" shape="-7.20,-1.60 7.20,-1.60"/>
    </edge>

    <edge id="0_1" from="0" to="1" priority="-1">
        <lane id="0_1_0" index="0" speed="13.89" length="192.80" shape="7.20,-1.60 200.00,-1.60"/>
    </edge>
    <edge id="0_N" from="0" to="N" priority="-1">
        <lane id="0_N_0" index="0" speed="13.89" length="192.80" shape="1.60,7.20 1.60,200.00"/>
    </edge>
    <edge id="0_S" from="0" to="S" priority="-1">
        <lane id="0_S_0" index="0" speed="13.89" length="192.80" shape="-1.60,-7.20 -1.60,-200.00"/>
    </edge>
    <edge id="0_W" from="0" to="W" priority="-1">
        <lane id="0_W_0" index="0" speed="13.89" length="192.80" shape="-7.20,1.60 -200.00,1.60"/>
    </edge>
    <edge id="1_0" from="1" to="0" priority="-1">
        <lane id="1_0_0" index="0" speed="13.89" length="192.80" shape="200.00,1.60 7.20,1.60"/>
    </edge>
    <edge id="N_0" from="N" to="0" priority="-1">
        <lane id="N_0_0" index="0" speed="13.89" length="192.80" shape="-1.60,200.00 -1.60,7.20"/>
    </edge>
    <edge id="S_0" from="S" to="0" priority="-1">
        <lane id="S_0_0" index="0" speed="13.89" length="192.80" shape="1.60,-200.00 1.60,-7.20"/>
    </edge>
    <edge id="W_0" from="W" to="0" priority="-1">
        <lane id="W_0_0" index="0" speed="13.89" length="192.80" shape="-200.00,-1.60 -7.20,-1.60"/>
    </edge>

    <tlLogic id="0" type="static" programID="0" offset="0">
        <phase duration="42" state="GGrrGGrr"/>
        <phase duration="3"  state="yyrryyrr"/>
        <phase duration="42" state="rrGGrrGG"/>
        <phase duration="3"  state="rryyrryy"/>
    </tlLogic>

    <junction id="0" type="traffic_light" x="0.00" y="0.00" incLanes="N_0_0 1_0_0 S_0_0 W_0_0" intLanes=":0_0_0 :0_1_0 :0_2_0 :0_3_0 :0_4_0 :0_5_0 :0_6_0 :0_7_0" shape="-3.20,7.20 3.20,7.20 3.64,4.98 4.20,4.20 4.98,3.64 5.98,3.31 7.20,3.20 7.20,-3.20 4.98,-3.64 4.20,-4.20 3.64,-4.98 3.31,-5.98 3.20,-7.20 -3.20,-7.20 -3.64,-4.98 -4.20,-4.20 -4.98,-3.64 -5.98,-3.31 -7.20,-3.20 -7.20,3.20 -4.98,3.64 -4.20,4.20 -3.64,4.98 -3.31,5.98" customShape="1">
        <request index="0" response="00000000" foes="00001000" cont="0"/>
        <request index="1" response="00000000" foes="11001000" cont="0"/>
        <request index="2" response="00100000" foes="00100000" cont="0"/>
        <request index="3" response="00100011" foes="00100011" cont="0"/>
        <request index="4" response="00000000" foes="10000000" cont="0"/>
        <request index="5" response="00000000" foes="10001100" cont="0"/>
        <request index="6" response="00000010" foes="00000010" cont="0"/>
        <request index="7" response="00110010" foes="00110010" cont="0"/>
    </junction>
    <junction id="1" type="dead_end" x="200.00" y="0.00" incLanes="0_1_0" intLanes="" shape="200.00,0.00 200.00,-3.20 200.00,0.00"/>
    <junction id="N" type="dead_end" x="0.00" y="200.00" incLanes="0_N_0" intLanes="" shape="0.00,200.00 3.20,200.00 0.00,200.00"/>
    <junction id="S" type="dead_end" x="0.00" y="-200.00" incLanes="0_S_0" intLanes="" shape="0.00,-200.00 -3.20,-200.00 0.00,-200.00"/>
    <junction id="W" type="dead_end" x="-200.00" y="0.00" incLanes="0_W_0" intLanes="" shape="-200.00,0.00 -200.00,3.20 -200.00,0.00"/>

    <connection from="1_0" to="0_N" fromLane="0" toLane="0" via=":0_2_0" tl="0" linkIndex="2" dir="r" state="o"/>
    <connection from="1_0" to="0_W" fromLane="0" toLane="0" via=":0_3_0" tl="0" linkIndex="3" dir="s" state="o"/>
    <connection from="N_0" to="0_W" fromLane="0" toLane="0" via=":0_0_0" tl="0" linkIndex="0" dir="r" state="O"/>
    <connection from="N_0" to="0_S" fromLane="0" toLane="0" via=":0_1_0" tl="0" linkIndex="1" dir="s" state="O"/>
    <connection from="S_0" to="0_1" fromLane="0" toLane="0" via=":0_4_0" tl="0" linkIndex="4" dir="r" state="O"/>
    <connection from="S_0" to="0_N" fromLane="0" toLane="0" via=":0_5_0" tl="0" linkIndex="5" dir="s" state="O"/>
    <connection from="W_0" to="0_S" fromLane="0" toLane="0" via=":0_6_0" tl="0" linkIndex="6" dir="r" state="o"/>
    <connection from="W_0" to="0_1" fromLane="0" toLane="0" via=":0_7_0" tl="0" linkIndex="7" dir="s" state="o"/>

    <connection from=":0_0" to="0_W" fromLane="0" toLane="0" dir="r" state="M"/>
    <connection from=":0_1" to="0_S" fromLane="0" toLane="0" dir="s" state="M"/>
    <connection from=":0_2" to="0_N" fromLane="0" toLane="0" dir="r" state="M"/>
    <connection from=":0_3" to="0_W" fromLane="0" toLane="0" dir="s" state="M"/>
    <connection from=":0_4" to="0_1" fromLane="0" toLane="0" dir="r" state="M"/>
    <connection from=":0_5" to="0_N" fromLane="0" toLane="0" dir="s" state="M"/>
    <connection from=":0_6" to="0_S" fromLane="0" toLane="0" dir="r" state="M"/>
    <connection from=":0_7" to="0_1" fromLane="0" toLane="0" dir="s" state="M"/>

</net>
